CM Loop Antena for electronics unmessed on YouTube 2022-12-2 10:22
CE ----------
GW   1   1  0.000000 -6.57E-04  -0.01527  0.000000 -6.57E-04  -0.01748  0.001500
GW   2   7  0.000000  0.000000  -0.01527  0.000000  0.004600  -0.01527  5.00E-04
GW   3   7  0.000000  0.004600  -0.01527  0.000000  0.011319  -0.01132  5.00E-04
GW   4   7  0.000000  0.011319  -0.01132  0.000000  0.015272  -0.00460  5.00E-04
GW   5   7  0.000000  -0.01748  -0.00460  0.000000  -0.01748  0.004600  5.00E-04
GW   6   7  0.000000  0.017480  0.004600  0.000000  0.012880  0.012880  5.00E-04
GW   7   7  0.000000  0.012880  0.012880  0.000000  0.004600  0.017480  5.00E-04
GW   8   7  0.000000  0.004600  0.017480  0.000000  -0.00460  0.017480  5.00E-04
GW   9   7  0.000000  -0.00460  0.017480  0.000000  -0.01288  0.012880  5.00E-04
GW  10   7  0.000000  -0.01288  0.012880  0.000000  -0.01748  0.004600  5.00E-04
GW  11   7  0.000000  0.017480  0.004600  0.000000  0.017480  0.000000  5.00E-04
GW  12   7  0.000000  0.017480  0.000000  0.000000  0.017480  -0.00460  5.00E-04
GW  13   7  0.000000  -0.01748  -0.00460  0.000000  -0.01288  -0.01288  5.00E-04
GW  14   7  0.000000  -0.01288  -0.01288  0.000000  -0.00460  -0.01748  5.00E-04
GW  15   7  0.000000  -0.00460  -0.01748  0.000000  0.004600  -0.01748  5.00E-04
GW  16   7  0.000000  0.004600  -0.01748  0.000000  0.012880  -0.01288  5.00E-04
GW  17   7  0.000000  0.012880  -0.01288  0.000000  0.017480  -0.00460  5.00E-04
GW  18   7  0.000000  0.000000  -0.01527  0.000000  -0.00460  -0.01527  5.00E-04
GW  19   7  0.000000  -0.00460  -0.01748  0.000000  -0.00460  -0.01527  5.00E-04
GE  0
FR  0    1    0    0  1800.000  0.000000
EX  0    1    1    1  1.000000  0.000000                                        
XQ
RP  0    1  360 1000  90.00000     0.000     0.000     1.000 5.000E+03
RP  0  360    1 1000   -90.000  0.000000     1.000     0.000 5.000E+03
RP  0   91  120 1001     0.000     0.000     2.000     3.000 5.000E+03
XQ
FR  0    1    0    0  1804.013  0.000000
EX  0    1    1    1  1.000000  0.000000                                        
XQ
RP  0    1  360 1000  90.00000     0.000     0.000     1.000 5.000E+03
RP  0  360    1 1000   -90.000  0.000000     1.000     0.000 5.000E+03
XQ
FR  0    1    0    0  1808.027  0.000000
EX  0    1    1    1  1.000000  0.000000                                        
XQ
RP  0    1  360 1000  90.00000     0.000     0.000     1.000 5.000E+03
RP  0  360    1 1000   -90.000  0.000000     1.000     0.000 5.000E+03
XQ
FR  0    1    0    0  1812.040  0.000000
EX  0    1    1    1  1.000000  0.000000                                        
XQ
RP  0    1  360 1000  90.00000     0.000     0.000     1.000 5.000E+03
RP  0  360    1 1000   -90.000  0.000000     1.000     0.000 5.000E+03
XQ
FR  0    1    0    0  1816.054  0.000000
EX  0    1    1    1  1.000000  0.000000                                        
XQ
RP  0    1  360 1000  90.00000     0.000     0.000     1.000 5.000E+03
RP  0  360    1 1000   -90.000  0.000000     1.000     0.000 5.000E+03
XQ
FR  0    1    0    0  1820.067  0.000000
EX  0    1    1    1  1.000000  0.000000                                        
XQ
RP  0    1  360 1000  90.00000     0.000     0.000     1.000 5.000E+03
RP  0  360    1 1000   -90.000  0.000000     1.000     0.000 5.000E+03
XQ
FR  0    1    0    0  1824.080  0.000000
EX  0    1    1    1  1.000000  0.000000                                        
XQ
RP  0    1  360 1000  90.00000     0.000     0.000     1.000 5.000E+03
RP  0  360    1 1000   -90.000  0.000000     1.000     0.000 5.000E+03
XQ
FR  0    1    0    0  1828.094  0.000000
EX  0    1    1    1  1.000000  0.000000                                        
XQ
RP  0    1  360 1000  90.00000     0.000     0.000     1.000 5.000E+03
RP  0  360    1 1000   -90.000  0.000000     1.000     0.000 5.000E+03
XQ
FR  0    1    0    0  1832.107  0.000000
EX  0    1    1    1  1.000000  0.000000                                        
XQ
RP  0    1  360 1000  90.00000     0.000     0.000     1.000 5.000E+03
RP  0  360    1 1000   -90.000  0.000000     1.000     0.000 5.000E+03
XQ
FR  0    1    0    0  1836.120  0.000000
EX  0    1    1    1  1.000000  0.000000                                        
XQ
RP  0    1  360 1000  90.00000     0.000     0.000     1.000 5.000E+03
RP  0  360    1 1000   -90.000  0.000000     1.000     0.000 5.000E+03
XQ
FR  0    1    0    0  1840.134  0.000000
EX  0    1    1    1  1.000000  0.000000                                        
XQ
RP  0    1  360 1000  90.00000     0.000     0.000     1.000 5.000E+03
RP  0  360    1 1000   -90.000  0.000000     1.000     0.000 5.000E+03
XQ
FR  0    1    0    0  1844.147  0.000000
EX  0    1    1    1  1.000000  0.000000                                        
XQ
RP  0    1  360 1000  90.00000     0.000     0.000     1.000 5.000E+03
RP  0  360    1 1000   -90.000  0.000000     1.000     0.000 5.000E+03
XQ
FR  0    1    0    0  1848.161  0.000000
EX  0    1    1    1  1.000000  0.000000                                        
XQ
RP  0    1  360 1000  90.00000     0.000     0.000     1.000 5.000E+03
RP  0  360    1 1000   -90.000  0.000000     1.000     0.000 5.000E+03
XQ
FR  0    1    0    0  1852.174  0.000000
EX  0    1    1    1  1.000000  0.000000                                        
XQ
RP  0    1  360 1000  90.00000     0.000     0.000     1.000 5.000E+03
RP  0  360    1 1000   -90.000  0.000000     1.000     0.000 5.000E+03
XQ
FR  0    1    0    0  1856.187  0.000000
EX  0    1    1    1  1.000000  0.000000                                        
XQ
RP  0    1  360 1000  90.00000     0.000     0.000     1.000 5.000E+03
RP  0  360    1 1000   -90.000  0.000000     1.000     0.000 5.000E+03
XQ
FR  0    1    0    0  1860.201  0.000000
EX  0    1    1    1  1.000000  0.000000                                        
XQ
RP  0    1  360 1000  90.00000     0.000     0.000     1.000 5.000E+03
RP  0  360    1 1000   -90.000  0.000000     1.000     0.000 5.000E+03
XQ
FR  0    1    0    0  1864.214  0.000000
EX  0    1    1    1  1.000000  0.000000                                        
XQ
RP  0    1  360 1000  90.00000     0.000     0.000     1.000 5.000E+03
RP  0  360    1 1000   -90.000  0.000000     1.000     0.000 5.000E+03
XQ
FR  0    1    0    0  1868.227  0.000000
EX  0    1    1    1  1.000000  0.000000                                        
XQ
RP  0    1  360 1000  90.00000     0.000     0.000     1.000 5.000E+03
RP  0  360    1 1000   -90.000  0.000000     1.000     0.000 5.000E+03
XQ
FR  0    1    0    0  1872.241  0.000000
EX  0    1    1    1  1.000000  0.000000                                        
XQ
RP  0    1  360 1000  90.00000     0.000     0.000     1.000 5.000E+03
RP  0  360    1 1000   -90.000  0.000000     1.000     0.000 5.000E+03
XQ
FR  0    1    0    0  1876.254  0.000000
EX  0    1    1    1  1.000000  0.000000                                        
XQ
RP  0    1  360 1000  90.00000     0.000     0.000     1.000 5.000E+03
RP  0  360    1 1000   -90.000  0.000000     1.000     0.000 5.000E+03
XQ
FR  0    1    0    0  1880.268  0.000000
EX  0    1    1    1  1.000000  0.000000                                        
XQ
RP  0    1  360 1000  90.00000     0.000     0.000     1.000 5.000E+03
RP  0  360    1 1000   -90.000  0.000000     1.000     0.000 5.000E+03
XQ
FR  0    1    0    0  1884.281  0.000000
EX  0    1    1    1  1.000000  0.000000                                        
XQ
RP  0    1  360 1000  90.00000     0.000     0.000     1.000 5.000E+03
RP  0  360    1 1000   -90.000  0.000000     1.000     0.000 5.000E+03
XQ
FR  0    1    0    0  1888.294  0.000000
EX  0    1    1    1  1.000000  0.000000                                        
XQ
RP  0    1  360 1000  90.00000     0.000     0.000     1.000 5.000E+03
RP  0  360    1 1000   -90.000  0.000000     1.000     0.000 5.000E+03
XQ
FR  0    1    0    0  1892.308  0.000000
EX  0    1    1    1  1.000000  0.000000                                        
XQ
RP  0    1  360 1000  90.00000     0.000     0.000     1.000 5.000E+03
RP  0  360    1 1000   -90.000  0.000000     1.000     0.000 5.000E+03
XQ
FR  0    1    0    0  1896.321  0.000000
EX  0    1    1    1  1.000000  0.000000                                        
XQ
RP  0    1  360 1000  90.00000     0.000     0.000     1.000 5.000E+03
RP  0  360    1 1000   -90.000  0.000000     1.000     0.000 5.000E+03
XQ
FR  0    1    0    0  1900.334  0.000000
EX  0    1    1    1  1.000000  0.000000                                        
XQ
RP  0    1  360 1000  90.00000     0.000     0.000     1.000 5.000E+03
RP  0  360    1 1000   -90.000  0.000000     1.000     0.000 5.000E+03
XQ
FR  0    1    0    0  1904.348  0.000000
EX  0    1    1    1  1.000000  0.000000                                        
XQ
RP  0    1  360 1000  90.00000     0.000     0.000     1.000 5.000E+03
RP  0  360    1 1000   -90.000  0.000000     1.000     0.000 5.000E+03
XQ
FR  0    1    0    0  1908.361  0.000000
EX  0    1    1    1  1.000000  0.000000                                        
XQ
RP  0    1  360 1000  90.00000     0.000     0.000     1.000 5.000E+03
RP  0  360    1 1000   -90.000  0.000000     1.000     0.000 5.000E+03
XQ
FR  0    1    0    0  1912.375  0.000000
EX  0    1    1    1  1.000000  0.000000                                        
XQ
RP  0    1  360 1000  90.00000     0.000     0.000     1.000 5.000E+03
RP  0  360    1 1000   -90.000  0.000000     1.000     0.000 5.000E+03
XQ
FR  0    1    0    0  1916.388  0.000000
EX  0    1    1    1  1.000000  0.000000                                        
XQ
RP  0    1  360 1000  90.00000     0.000     0.000     1.000 5.000E+03
RP  0  360    1 1000   -90.000  0.000000     1.000     0.000 5.000E+03
XQ
FR  0    1    0    0  1920.401  0.000000
EX  0    1    1    1  1.000000  0.000000                                        
XQ
RP  0    1  360 1000  90.00000     0.000     0.000     1.000 5.000E+03
RP  0  360    1 1000   -90.000  0.000000     1.000     0.000 5.000E+03
XQ
FR  0    1    0    0  1924.415  0.000000
EX  0    1    1    1  1.000000  0.000000                                        
XQ
RP  0    1  360 1000  90.00000     0.000     0.000     1.000 5.000E+03
RP  0  360    1 1000   -90.000  0.000000     1.000     0.000 5.000E+03
XQ
FR  0    1    0    0  1928.428  0.000000
EX  0    1    1    1  1.000000  0.000000                                        
XQ
RP  0    1  360 1000  90.00000     0.000     0.000     1.000 5.000E+03
RP  0  360    1 1000   -90.000  0.000000     1.000     0.000 5.000E+03
XQ
FR  0    1    0    0  1932.441  0.000000
EX  0    1    1    1  1.000000  0.000000                                        
XQ
RP  0    1  360 1000  90.00000     0.000     0.000     1.000 5.000E+03
RP  0  360    1 1000   -90.000  0.000000     1.000     0.000 5.000E+03
XQ
FR  0    1    0    0  1936.455  0.000000
EX  0    1    1    1  1.000000  0.000000                                        
XQ
RP  0    1  360 1000  90.00000     0.000     0.000     1.000 5.000E+03
RP  0  360    1 1000   -90.000  0.000000     1.000     0.000 5.000E+03
XQ
FR  0    1    0    0  1940.468  0.000000
EX  0    1    1    1  1.000000  0.000000                                        
XQ
RP  0    1  360 1000  90.00000     0.000     0.000     1.000 5.000E+03
RP  0  360    1 1000   -90.000  0.000000     1.000     0.000 5.000E+03
XQ
FR  0    1    0    0  1944.482  0.000000
EX  0    1    1    1  1.000000  0.000000                                        
XQ
RP  0    1  360 1000  90.00000     0.000     0.000     1.000 5.000E+03
RP  0  360    1 1000   -90.000  0.000000     1.000     0.000 5.000E+03
XQ
FR  0    1    0    0  1948.495  0.000000
EX  0    1    1    1  1.000000  0.000000                                        
XQ
RP  0    1  360 1000  90.00000     0.000     0.000     1.000 5.000E+03
RP  0  360    1 1000   -90.000  0.000000     1.000     0.000 5.000E+03
XQ
FR  0    1    0    0  1952.508  0.000000
EX  0    1    1    1  1.000000  0.000000                                        
XQ
RP  0    1  360 1000  90.00000     0.000     0.000     1.000 5.000E+03
RP  0  360    1 1000   -90.000  0.000000     1.000     0.000 5.000E+03
XQ
FR  0    1    0    0  1956.522  0.000000
EX  0    1    1    1  1.000000  0.000000                                        
XQ
RP  0    1  360 1000  90.00000     0.000     0.000     1.000 5.000E+03
RP  0  360    1 1000   -90.000  0.000000     1.000     0.000 5.000E+03
XQ
FR  0    1    0    0  1960.535  0.000000
EX  0    1    1    1  1.000000  0.000000                                        
XQ
RP  0    1  360 1000  90.00000     0.000     0.000     1.000 5.000E+03
RP  0  360    1 1000   -90.000  0.000000     1.000     0.000 5.000E+03
XQ
FR  0    1    0    0  1964.548  0.000000
EX  0    1    1    1  1.000000  0.000000                                        
XQ
RP  0    1  360 1000  90.00000     0.000     0.000     1.000 5.000E+03
RP  0  360    1 1000   -90.000  0.000000     1.000     0.000 5.000E+03
XQ
FR  0    1    0    0  1968.562  0.000000
EX  0    1    1    1  1.000000  0.000000                                        
XQ
RP  0    1  360 1000  90.00000     0.000     0.000     1.000 5.000E+03
RP  0  360    1 1000   -90.000  0.000000     1.000     0.000 5.000E+03
XQ
FR  0    1    0    0  1972.575  0.000000
EX  0    1    1    1  1.000000  0.000000                                        
XQ
RP  0    1  360 1000  90.00000     0.000     0.000     1.000 5.000E+03
RP  0  360    1 1000   -90.000  0.000000     1.000     0.000 5.000E+03
XQ
FR  0    1    0    0  1976.589  0.000000
EX  0    1    1    1  1.000000  0.000000                                        
XQ
RP  0    1  360 1000  90.00000     0.000     0.000     1.000 5.000E+03
RP  0  360    1 1000   -90.000  0.000000     1.000     0.000 5.000E+03
XQ
FR  0    1    0    0  1980.602  0.000000
EX  0    1    1    1  1.000000  0.000000                                        
XQ
RP  0    1  360 1000  90.00000     0.000     0.000     1.000 5.000E+03
RP  0  360    1 1000   -90.000  0.000000     1.000     0.000 5.000E+03
XQ
FR  0    1    0    0  1984.615  0.000000
EX  0    1    1    1  1.000000  0.000000                                        
XQ
RP  0    1  360 1000  90.00000     0.000     0.000     1.000 5.000E+03
RP  0  360    1 1000   -90.000  0.000000     1.000     0.000 5.000E+03
XQ
FR  0    1    0    0  1988.629  0.000000
EX  0    1    1    1  1.000000  0.000000                                        
XQ
RP  0    1  360 1000  90.00000     0.000     0.000     1.000 5.000E+03
RP  0  360    1 1000   -90.000  0.000000     1.000     0.000 5.000E+03
XQ
FR  0    1    0    0  1992.642  0.000000
EX  0    1    1    1  1.000000  0.000000                                        
XQ
RP  0    1  360 1000  90.00000     0.000     0.000     1.000 5.000E+03
RP  0  360    1 1000   -90.000  0.000000     1.000     0.000 5.000E+03
XQ
FR  0    1    0    0  1996.656  0.000000
EX  0    1    1    1  1.000000  0.000000                                        
XQ
RP  0    1  360 1000  90.00000     0.000     0.000     1.000 5.000E+03
RP  0  360    1 1000   -90.000  0.000000     1.000     0.000 5.000E+03
XQ
FR  0    1    0    0  2000.669  0.000000
EX  0    1    1    1  1.000000  0.000000                                        
XQ
RP  0    1  360 1000  90.00000     0.000     0.000     1.000 5.000E+03
RP  0  360    1 1000   -90.000  0.000000     1.000     0.000 5.000E+03
XQ
FR  0    1    0    0  2004.682  0.000000
EX  0    1    1    1  1.000000  0.000000                                        
XQ
RP  0    1  360 1000  90.00000     0.000     0.000     1.000 5.000E+03
RP  0  360    1 1000   -90.000  0.000000     1.000     0.000 5.000E+03
XQ
FR  0    1    0    0  2008.696  0.000000
EX  0    1    1    1  1.000000  0.000000                                        
XQ
RP  0    1  360 1000  90.00000     0.000     0.000     1.000 5.000E+03
RP  0  360    1 1000   -90.000  0.000000     1.000     0.000 5.000E+03
XQ
FR  0    1    0    0  2012.709  0.000000
EX  0    1    1    1  1.000000  0.000000                                        
XQ
RP  0    1  360 1000  90.00000     0.000     0.000     1.000 5.000E+03
RP  0  360    1 1000   -90.000  0.000000     1.000     0.000 5.000E+03
XQ
FR  0    1    0    0  2016.722  0.000000
EX  0    1    1    1  1.000000  0.000000                                        
XQ
RP  0    1  360 1000  90.00000     0.000     0.000     1.000 5.000E+03
RP  0  360    1 1000   -90.000  0.000000     1.000     0.000 5.000E+03
XQ
FR  0    1    0    0  2020.736  0.000000
EX  0    1    1    1  1.000000  0.000000                                        
XQ
RP  0    1  360 1000  90.00000     0.000     0.000     1.000 5.000E+03
RP  0  360    1 1000   -90.000  0.000000     1.000     0.000 5.000E+03
XQ
FR  0    1    0    0  2024.749  0.000000
EX  0    1    1    1  1.000000  0.000000                                        
XQ
RP  0    1  360 1000  90.00000     0.000     0.000     1.000 5.000E+03
RP  0  360    1 1000   -90.000  0.000000     1.000     0.000 5.000E+03
XQ
FR  0    1    0    0  2028.763  0.000000
EX  0    1    1    1  1.000000  0.000000                                        
XQ
RP  0    1  360 1000  90.00000     0.000     0.000     1.000 5.000E+03
RP  0  360    1 1000   -90.000  0.000000     1.000     0.000 5.000E+03
XQ
FR  0    1    0    0  2032.776  0.000000
EX  0    1    1    1  1.000000  0.000000                                        
XQ
RP  0    1  360 1000  90.00000     0.000     0.000     1.000 5.000E+03
RP  0  360    1 1000   -90.000  0.000000     1.000     0.000 5.000E+03
XQ
FR  0    1    0    0  2036.789  0.000000
EX  0    1    1    1  1.000000  0.000000                                        
XQ
RP  0    1  360 1000  90.00000     0.000     0.000     1.000 5.000E+03
RP  0  360    1 1000   -90.000  0.000000     1.000     0.000 5.000E+03
XQ
FR  0    1    0    0  2040.803  0.000000
EX  0    1    1    1  1.000000  0.000000                                        
XQ
RP  0    1  360 1000  90.00000     0.000     0.000     1.000 5.000E+03
RP  0  360    1 1000   -90.000  0.000000     1.000     0.000 5.000E+03
XQ
FR  0    1    0    0  2044.816  0.000000
EX  0    1    1    1  1.000000  0.000000                                        
XQ
RP  0    1  360 1000  90.00000     0.000     0.000     1.000 5.000E+03
RP  0  360    1 1000   -90.000  0.000000     1.000     0.000 5.000E+03
XQ
FR  0    1    0    0  2048.829  0.000000
EX  0    1    1    1  1.000000  0.000000                                        
XQ
RP  0    1  360 1000  90.00000     0.000     0.000     1.000 5.000E+03
RP  0  360    1 1000   -90.000  0.000000     1.000     0.000 5.000E+03
XQ
FR  0    1    0    0  2052.843  0.000000
EX  0    1    1    1  1.000000  0.000000                                        
XQ
RP  0    1  360 1000  90.00000     0.000     0.000     1.000 5.000E+03
RP  0  360    1 1000   -90.000  0.000000     1.000     0.000 5.000E+03
XQ
FR  0    1    0    0  2056.856  0.000000
EX  0    1    1    1  1.000000  0.000000                                        
XQ
RP  0    1  360 1000  90.00000     0.000     0.000     1.000 5.000E+03
RP  0  360    1 1000   -90.000  0.000000     1.000     0.000 5.000E+03
XQ
FR  0    1    0    0  2060.870  0.000000
EX  0    1    1    1  1.000000  0.000000                                        
XQ
RP  0    1  360 1000  90.00000     0.000     0.000     1.000 5.000E+03
RP  0  360    1 1000   -90.000  0.000000     1.000     0.000 5.000E+03
XQ
FR  0    1    0    0  2064.883  0.000000
EX  0    1    1    1  1.000000  0.000000                                        
XQ
RP  0    1  360 1000  90.00000     0.000     0.000     1.000 5.000E+03
RP  0  360    1 1000   -90.000  0.000000     1.000     0.000 5.000E+03
XQ
FR  0    1    0    0  2068.896  0.000000
EX  0    1    1    1  1.000000  0.000000                                        
XQ
RP  0    1  360 1000  90.00000     0.000     0.000     1.000 5.000E+03
RP  0  360    1 1000   -90.000  0.000000     1.000     0.000 5.000E+03
XQ
FR  0    1    0    0  2072.910  0.000000
EX  0    1    1    1  1.000000  0.000000                                        
XQ
RP  0    1  360 1000  90.00000     0.000     0.000     1.000 5.000E+03
RP  0  360    1 1000   -90.000  0.000000     1.000     0.000 5.000E+03
XQ
FR  0    1    0    0  2076.923  0.000000
EX  0    1    1    1  1.000000  0.000000                                        
XQ
RP  0    1  360 1000  90.00000     0.000     0.000     1.000 5.000E+03
RP  0  360    1 1000   -90.000  0.000000     1.000     0.000 5.000E+03
XQ
FR  0    1    0    0  2080.936  0.000000
EX  0    1    1    1  1.000000  0.000000                                        
XQ
RP  0    1  360 1000  90.00000     0.000     0.000     1.000 5.000E+03
RP  0  360    1 1000   -90.000  0.000000     1.000     0.000 5.000E+03
XQ
FR  0    1    0    0  2084.950  0.000000
EX  0    1    1    1  1.000000  0.000000                                        
XQ
RP  0    1  360 1000  90.00000     0.000     0.000     1.000 5.000E+03
RP  0  360    1 1000   -90.000  0.000000     1.000     0.000 5.000E+03
XQ
FR  0    1    0    0  2088.963  0.000000
EX  0    1    1    1  1.000000  0.000000                                        
XQ
RP  0    1  360 1000  90.00000     0.000     0.000     1.000 5.000E+03
RP  0  360    1 1000   -90.000  0.000000     1.000     0.000 5.000E+03
XQ
FR  0    1    0    0  2092.977  0.000000
EX  0    1    1    1  1.000000  0.000000                                        
XQ
RP  0    1  360 1000  90.00000     0.000     0.000     1.000 5.000E+03
RP  0  360    1 1000   -90.000  0.000000     1.000     0.000 5.000E+03
XQ
FR  0    1    0    0  2096.990  0.000000
EX  0    1    1    1  1.000000  0.000000                                        
XQ
RP  0    1  360 1000  90.00000     0.000     0.000     1.000 5.000E+03
RP  0  360    1 1000   -90.000  0.000000     1.000     0.000 5.000E+03
XQ
FR  0    1    0    0  2101.003  0.000000
EX  0    1    1    1  1.000000  0.000000                                        
XQ
RP  0    1  360 1000  90.00000     0.000     0.000     1.000 5.000E+03
RP  0  360    1 1000   -90.000  0.000000     1.000     0.000 5.000E+03
XQ
FR  0    1    0    0  2105.017  0.000000
EX  0    1    1    1  1.000000  0.000000                                        
XQ
RP  0    1  360 1000  90.00000     0.000     0.000     1.000 5.000E+03
RP  0  360    1 1000   -90.000  0.000000     1.000     0.000 5.000E+03
XQ
FR  0    1    0    0  2109.030  0.000000
EX  0    1    1    1  1.000000  0.000000                                        
XQ
RP  0    1  360 1000  90.00000     0.000     0.000     1.000 5.000E+03
RP  0  360    1 1000   -90.000  0.000000     1.000     0.000 5.000E+03
XQ
FR  0    1    0    0  2113.043  0.000000
EX  0    1    1    1  1.000000  0.000000                                        
XQ
RP  0    1  360 1000  90.00000     0.000     0.000     1.000 5.000E+03
RP  0  360    1 1000   -90.000  0.000000     1.000     0.000 5.000E+03
XQ
FR  0    1    0    0  2117.057  0.000000
EX  0    1    1    1  1.000000  0.000000                                        
XQ
RP  0    1  360 1000  90.00000     0.000     0.000     1.000 5.000E+03
RP  0  360    1 1000   -90.000  0.000000     1.000     0.000 5.000E+03
XQ
FR  0    1    0    0  2121.070  0.000000
EX  0    1    1    1  1.000000  0.000000                                        
XQ
RP  0    1  360 1000  90.00000     0.000     0.000     1.000 5.000E+03
RP  0  360    1 1000   -90.000  0.000000     1.000     0.000 5.000E+03
XQ
FR  0    1    0    0  2125.084  0.000000
EX  0    1    1    1  1.000000  0.000000                                        
XQ
RP  0    1  360 1000  90.00000     0.000     0.000     1.000 5.000E+03
RP  0  360    1 1000   -90.000  0.000000     1.000     0.000 5.000E+03
XQ
FR  0    1    0    0  2129.097  0.000000
EX  0    1    1    1  1.000000  0.000000                                        
XQ
RP  0    1  360 1000  90.00000     0.000     0.000     1.000 5.000E+03
RP  0  360    1 1000   -90.000  0.000000     1.000     0.000 5.000E+03
XQ
FR  0    1    0    0  2133.110  0.000000
EX  0    1    1    1  1.000000  0.000000                                        
XQ
RP  0    1  360 1000  90.00000     0.000     0.000     1.000 5.000E+03
RP  0  360    1 1000   -90.000  0.000000     1.000     0.000 5.000E+03
XQ
FR  0    1    0    0  2137.124  0.000000
EX  0    1    1    1  1.000000  0.000000                                        
XQ
RP  0    1  360 1000  90.00000     0.000     0.000     1.000 5.000E+03
RP  0  360    1 1000   -90.000  0.000000     1.000     0.000 5.000E+03
XQ
FR  0    1    0    0  2141.137  0.000000
EX  0    1    1    1  1.000000  0.000000                                        
XQ
RP  0    1  360 1000  90.00000     0.000     0.000     1.000 5.000E+03
RP  0  360    1 1000   -90.000  0.000000     1.000     0.000 5.000E+03
XQ
FR  0    1    0    0  2145.151  0.000000
EX  0    1    1    1  1.000000  0.000000                                        
XQ
RP  0    1  360 1000  90.00000     0.000     0.000     1.000 5.000E+03
RP  0  360    1 1000   -90.000  0.000000     1.000     0.000 5.000E+03
XQ
FR  0    1    0    0  2149.164  0.000000
EX  0    1    1    1  1.000000  0.000000                                        
XQ
RP  0    1  360 1000  90.00000     0.000     0.000     1.000 5.000E+03
RP  0  360    1 1000   -90.000  0.000000     1.000     0.000 5.000E+03
XQ
FR  0    1    0    0  2153.177  0.000000
EX  0    1    1    1  1.000000  0.000000                                        
XQ
RP  0    1  360 1000  90.00000     0.000     0.000     1.000 5.000E+03
RP  0  360    1 1000   -90.000  0.000000     1.000     0.000 5.000E+03
XQ
FR  0    1    0    0  2157.191  0.000000
EX  0    1    1    1  1.000000  0.000000                                        
XQ
RP  0    1  360 1000  90.00000     0.000     0.000     1.000 5.000E+03
RP  0  360    1 1000   -90.000  0.000000     1.000     0.000 5.000E+03
XQ
FR  0    1    0    0  2161.204  0.000000
EX  0    1    1    1  1.000000  0.000000                                        
XQ
RP  0    1  360 1000  90.00000     0.000     0.000     1.000 5.000E+03
RP  0  360    1 1000   -90.000  0.000000     1.000     0.000 5.000E+03
XQ
FR  0    1    0    0  2165.217  0.000000
EX  0    1    1    1  1.000000  0.000000                                        
XQ
RP  0    1  360 1000  90.00000     0.000     0.000     1.000 5.000E+03
RP  0  360    1 1000   -90.000  0.000000     1.000     0.000 5.000E+03
XQ
FR  0    1    0    0  2169.231  0.000000
EX  0    1    1    1  1.000000  0.000000                                        
XQ
RP  0    1  360 1000  90.00000     0.000     0.000     1.000 5.000E+03
RP  0  360    1 1000   -90.000  0.000000     1.000     0.000 5.000E+03
XQ
FR  0    1    0    0  2173.244  0.000000
EX  0    1    1    1  1.000000  0.000000                                        
XQ
RP  0    1  360 1000  90.00000     0.000     0.000     1.000 5.000E+03
RP  0  360    1 1000   -90.000  0.000000     1.000     0.000 5.000E+03
XQ
FR  0    1    0    0  2177.258  0.000000
EX  0    1    1    1  1.000000  0.000000                                        
XQ
RP  0    1  360 1000  90.00000     0.000     0.000     1.000 5.000E+03
RP  0  360    1 1000   -90.000  0.000000     1.000     0.000 5.000E+03
XQ
FR  0    1    0    0  2181.271  0.000000
EX  0    1    1    1  1.000000  0.000000                                        
XQ
RP  0    1  360 1000  90.00000     0.000     0.000     1.000 5.000E+03
RP  0  360    1 1000   -90.000  0.000000     1.000     0.000 5.000E+03
XQ
FR  0    1    0    0  2185.284  0.000000
EX  0    1    1    1  1.000000  0.000000                                        
XQ
RP  0    1  360 1000  90.00000     0.000     0.000     1.000 5.000E+03
RP  0  360    1 1000   -90.000  0.000000     1.000     0.000 5.000E+03
XQ
FR  0    1    0    0  2189.298  0.000000
EX  0    1    1    1  1.000000  0.000000                                        
XQ
RP  0    1  360 1000  90.00000     0.000     0.000     1.000 5.000E+03
RP  0  360    1 1000   -90.000  0.000000     1.000     0.000 5.000E+03
XQ
FR  0    1    0    0  2193.311  0.000000
EX  0    1    1    1  1.000000  0.000000                                        
XQ
RP  0    1  360 1000  90.00000     0.000     0.000     1.000 5.000E+03
RP  0  360    1 1000   -90.000  0.000000     1.000     0.000 5.000E+03
XQ
FR  0    1    0    0  2197.324  0.000000
EX  0    1    1    1  1.000000  0.000000                                        
XQ
RP  0    1  360 1000  90.00000     0.000     0.000     1.000 5.000E+03
RP  0  360    1 1000   -90.000  0.000000     1.000     0.000 5.000E+03
XQ
FR  0    1    0    0  2201.338  0.000000
EX  0    1    1    1  1.000000  0.000000                                        
XQ
RP  0    1  360 1000  90.00000     0.000     0.000     1.000 5.000E+03
RP  0  360    1 1000   -90.000  0.000000     1.000     0.000 5.000E+03
XQ
FR  0    1    0    0  2205.351  0.000000
EX  0    1    1    1  1.000000  0.000000                                        
XQ
RP  0    1  360 1000  90.00000     0.000     0.000     1.000 5.000E+03
RP  0  360    1 1000   -90.000  0.000000     1.000     0.000 5.000E+03
XQ
FR  0    1    0    0  2209.365  0.000000
EX  0    1    1    1  1.000000  0.000000                                        
XQ
RP  0    1  360 1000  90.00000     0.000     0.000     1.000 5.000E+03
RP  0  360    1 1000   -90.000  0.000000     1.000     0.000 5.000E+03
XQ
FR  0    1    0    0  2213.378  0.000000
EX  0    1    1    1  1.000000  0.000000                                        
XQ
RP  0    1  360 1000  90.00000     0.000     0.000     1.000 5.000E+03
RP  0  360    1 1000   -90.000  0.000000     1.000     0.000 5.000E+03
XQ
FR  0    1    0    0  2217.391  0.000000
EX  0    1    1    1  1.000000  0.000000                                        
XQ
RP  0    1  360 1000  90.00000     0.000     0.000     1.000 5.000E+03